T44/data_conversion/HR/HR_Tx_01_2020_new_Koprivnica/Loaction1.raw
0,   100.00, 33, 0, 1, 50.00     / PSS(R)E-33.9    WED, MAR 03 2021  10:07
CREATED BY NETVISION RAW CONVERTER FROM FILES: NDC_2020-07-0
, BEGIN BUS DATA
     1,'SUBST01     ', 110.0000,1,   8,   1,   1,1.03921,  -0.6628,1.10000,0.90000,1.10000,0.90000
     2,'SUBST02     ',  35.0000,1,   8,   1,   1,1.00452,  -4.9139,1.10000,0.90000,1.10000,0.90000
     3,'SUBST3      ', 110.0000,1,   8,   1,   1,1.04178,   1.1405,1.10000,0.90000,1.10000,0.90000
     4,'SUBST4      ', 110.0000,1,   8,   1,   1,1.05521,  -1.5537,1.10000,0.90000,1.10000,0.90000
     5,'SUBST5      ', 110.0000,1,   8,   1,   1,1.03849,  -1.6970,1.10000,0.90000,1.10000,0.90000
     7,'SUBST7      ', 110.0000,2,   8,   1,   1,1.05134,   2.4925,1.10000,0.90000,1.10000,0.90000
     8,'SUBST8      ', 220.0000,2,   8,   1,   1,1.05400,   0.7297,1.10000,0.90000,1.10000,0.90000
     9,'SUBST9      ', 110.0000,1,   8,   1,   1,1.04698,   1.9405,1.10000,0.90000,1.10000,0.90000
    10,'SUBST10     ', 110.0000,2,   8,   1,   1,1.05259,  -0.8534,1.10000,0.90000,1.10000,0.90000
    11,'SUBST11     ', 400.0000,2,   8,   1,   1,1.03500,  -0.1439,1.10000,0.90000,1.10000,0.90000
    12,'SUBST12     ', 110.0000,1,   8,   1,   1,1.07296,  -1.9037,1.10000,0.90000,1.10000,0.90000
    13,'SUBST13     ', 400.0000,3,   8,   1,   1,1.03700,   0.0000,1.10000,0.90000,1.10000,0.90000
    14,'SUBST14     ', 220.0000,2,   8,   1,   1,1.07400,   0.8824,1.10000,0.90000,1.10000,0.90000
    15,'SUBST15     ', 110.0000,1,   8,   1,   1,1.05695,  -1.1904,1.10000,0.90000,1.10000,0.90000
    16,'SUBST16     ', 110.0000,1,   8,   1,   1,1.04287,   1.2595,1.10000,0.90000,1.10000,0.90000
    17,'SUBST17     ', 110.0000,1,   8,   1,   1,1.04313,   1.2078,1.10000,0.90000,1.10000,0.90000
    18,'SUBST18     ', 110.0000,1,   8,   1,   1,1.05609,  -1.4034,1.10000,0.90000,1.10000,0.90000
    19,'SUBST19     ', 110.0000,1,   8,   1,   1,1.03595,  -1.2261,1.10000,0.90000,1.10000,0.90000
    20,'SUBST20     ',  35.0000,1,   8,   1,   1,1.00666,  -2.7325,1.10000,0.90000,1.10000,0.90000
    21,'SUBST21     ',  35.0000,1,   8,   1,   1,1.00043,  -4.6811,1.10000,0.90000,1.10000,0.90000
    26,'SUBST26     ', 110.0000,1,   8,   1,   1,1.05184,  -1.6948,1.10000,0.90000,1.10000,0.90000
    29,'SUBST29     ', 110.0000,1,   8,   1,   1,1.04120,   0.3314,1.10000,0.90000,1.10000,0.90000
    30,'SUBST30     ',  35.0000,1,   8,   1,   1,1.00482,  -4.5626,1.10000,0.90000,1.10000,0.90000
    34,'SUBST34     ', 110.0000,2,   8,   1,   1,1.04461,   1.2868,1.10000,0.90000,1.10000,0.90000
    35,'SUBST35     ', 110.0000,1,   8,   1,   1,1.04342,   0.8546,1.10000,0.90000,1.10000,0.90000
    36,'SUBST36     ', 110.0000,2,   8,   1,   1,1.04442,   0.7413,1.10000,0.90000,1.10000,0.90000
    42,'SUBST42     ', 110.0000,1,   8,   1,   1,1.04681,  -1.9920,1.10000,0.90000,1.10000,0.90000
    55,'SUBST55     ', 110.0000,1,   8,   1,   1,1.04411,  -1.3708,1.10000,0.90000,1.10000,0.90000
    68,'SUBST68     ', 110.0000,1,   8,   1,   1,1.03785,  -1.7403,1.10000,0.90000,1.10000,0.90000
    72,'SUBST72     ', 110.0000,1,   8,   1,   1,1.06362,  -1.1253,1.10000,0.90000,1.10000,0.90000
   103,'SUBST103    ', 110.0000,1,   8,   1,   1,1.05488,  -1.6111,1.10000,0.90000,1.10000,0.90000
0 / END OF BUS DATA, BEGIN LOAD DATA
     1,'3 ',1,   8,   1,     1.843,     1.586,     0.000,     0.000,     0.000,     0.000,   1,1,0
     1,'4 ',1,   8,   1,     1.856,     1.567,     0.000,     0.000,     0.000,     0.000,   1,1,0
     2,'1 ',1,   8,   1,    25.397,    -0.400,     0.000,     0.000,     0.000,     0.000,   1,1,0
     3,'1 ',1,   8,   1,    21.802,     0.002,     0.000,     0.000,     0.000,     0.000,   1,1,0
     3,'2 ',1,   8,   1,    16.820,     2.377,     0.000,     0.000,     0.000,     0.000,   1,1,0
     4,'2 ',1,   8,   1,    29.765,     7.374,     0.000,     0.000,     0.000,     0.000,   1,1,0
     4,'99',1,   8,   1,    16.859,     0.401,     0.000,     0.000,     0.000,     0.000,   1,1,0
     5,'1 ',1,   8,   1,    18.816,     2.313,     0.000,     0.000,     0.000,     0.000,   1,1,0
     5,'2 ',1,   8,   1,    -9.000,    -0.460,     0.000,     0.000,     0.000,     0.000,   1,1,0
     8,'1 ',1,   8,   1,     0.000,   103.000,     0.000,     0.000,     0.000,     0.000,   1,1,0
     9,'1 ',1,   8,   1,     3.949,    -0.394,     0.000,     0.000,     0.000,     0.000,   1,1,0
     9,'2 ',1,   8,   1,    10.391,     5.244,     0.000,     0.000,     0.000,     0.000,   1,1,0
     9,'99',1,   8,   1,   -33.236,    23.904,     0.000,     0.000,     0.000,     0.000,   1,1,0
    10,'1 ',1,   8,   1,     5.220,     2.201,     0.000,     0.000,     0.000,     0.000,   1,1,0
    10,'99',1,   8,   1,    27.475,     2.118,     0.000,     0.000,     0.000,     0.000,   1,1,0
    12,'99',1,   8,   1,   188.523,    -0.146,     0.000,     0.000,     0.000,     0.000,   1,1,0
    15,'1 ',1,   8,   1,     4.318,    -7.359,     0.000,     0.000,     0.000,     0.000,   1,1,0
    16,'1 ',1,   8,   1,    11.997,     2.557,     0.000,     0.000,     0.000,     0.000,   1,1,0
    16,'2 ',1,   8,   1,    16.589,     1.480,     0.000,     0.000,     0.000,     0.000,   1,1,0
    16,'3 ',1,   8,   1,     4.645,    -0.130,     0.000,     0.000,     0.000,     0.000,   1,1,0
    17,'1 ',1,   8,   1,     3.041,     0.738,     0.000,     0.000,     0.000,     0.000,   1,1,0
    17,'2 ',1,   8,   1,     5.184,    -0.749,     0.000,     0.000,     0.000,     0.000,   1,1,0
    18,'1 ',1,   8,   1,    -0.016,    -1.527,     0.000,     0.000,     0.000,     0.000,   1,1,0
    20,'1 ',1,   8,   1,     4.325,    -0.516,     0.000,     0.000,     0.000,     0.000,   1,1,0
    21,'2 ',1,   8,   1,     9.660,    -0.063,     0.000,     0.000,     0.000,     0.000,   1,1,0
    26,'1 ',1,   8,   1,    15.730,     1.084,     0.000,     0.000,     0.000,     0.000,   1,1,0
    26,'2 ',1,   8,   1,    14.318,     2.747,     0.000,     0.000,     0.000,     0.000,   1,1,0
    30,'1 ',1,   8,   1,    14.775,    -0.358,     0.000,     0.000,     0.000,     0.000,   1,1,0
    35,'1 ',1,   8,   1,    15.905,     1.773,     0.000,     0.000,     0.000,     0.000,   1,1,0
    36,'1 ',1,   8,   1,    -0.806,     2.103,     0.000,     0.000,     0.000,     0.000,   1,1,0
    42,'1 ',1,   8,   1,    21.279,     1.852,     0.000,     0.000,     0.000,     0.000,   1,1,0
    55,'3 ',1,   8,   1,     7.106,     1.058,     0.000,     0.000,     0.000,     0.000,   1,1,0
    68,'2 ',1,   8,   1,     5.707,     2.486,     0.000,     0.000,     0.000,     0.000,   1,1,0
    72,'1 ',1,   8,   1,     0.220,    -0.596,     0.000,     0.000,     0.000,     0.000,   1,1,0
    72,'2 ',1,   8,   1,     0.220,    -0.596,     0.000,     0.000,     0.000,     0.000,   1,1,0
    72,'99',1,   8,   1,    11.209,     9.209,     0.000,     0.000,     0.000,     0.000,   1,1,0
   103,'1 ',1,   8,   1,    26.474,     4.640,     0.000,     0.000,     0.000,     0.000,   1,1,0
   103,'2 ',1,   8,   1,    23.995,     2.596,     0.000,     0.000,     0.000,     0.000,   1,1,0
   103,'3 ',1,   8,   1,     1.543,     0.523,     0.000,     0.000,     0.000,     0.000,   1,1,0
   103,'4 ',1,   8,   1,     1.091,     0.127,     0.000,     0.000,     0.000,     0.000,   1,1,0
   103,'99',1,   8,   1,     9.806,     4.787,     0.000,     0.000,     0.000,     0.000,   1,1,0
0 / END OF LOAD DATA, BEGIN FIXED SHUNT DATA
0 / END OF FIXED SHUNT DATA, BEGIN GENERATOR DATA
     7,'1 ',    44.158,     5.802,    25.000,    -4.000,1.05134,     0,    55.000, 0.00000E+0, 2.38000E-1, 0.00000E+0, 1.11400E-1,1.00000,1,  100.0,    47.500,    18.000,   1,1.0000
     7,'2 ',    45.340,     5.957,    25.000,    -4.000,1.05134,     0,    55.000, 0.00000E+0, 2.38000E-1, 0.00000E+0, 1.09000E-1,1.00000,1,  100.0,    47.500,    18.000,   1,1.0000
     8,'1 ',    65.000,     9.236,  9999.000, -9999.000,1.05400,     0,   100.000, 0.00000E+0, 1.00000E+0, 0.00000E+0, 0.00000E+0,1.00000,1,  100.0,  9999.000, -9999.000,   1,1.0000
    10,'1 ',     0.000,     0.000,     8.000,    -2.800,1.05368,     0,    35.950, 0.00000E+0, 2.30000E-1, 0.00000E+0, 1.16000E-1,1.00000,0,  100.0,    30.550,     5.000,   1,1.0000
    10,'2 ',     0.000,     0.000,     8.000,    -2.800,1.05368,     0,    35.950, 0.00000E+0, 2.30000E-1, 0.00000E+0, 1.16000E-1,1.00000,0,  100.0,    30.550,     5.000,   1,1.0000
    10,'3 ',     0.000,     0.000,    13.000,   -12.000,1.05368,     0,    16.000, 0.00000E+0, 1.39000E-1, 0.00000E+0, 1.05000E-1,1.00000,0,  100.0,    12.800,     3.000,   1,1.0000
    10,'4 ',     0.000,    13.000,    13.000,   -12.000,1.05368,     0,    16.000, 0.00000E+0, 1.39000E-1, 0.00000E+0, 1.05000E-1,1.00000,1,  100.0,    12.800,     3.000,   1,1.0000
    11,'1 ',   132.000,     9.397,  9999.000, -9999.000,1.03500,     0,   100.000, 0.00000E+0, 1.00000E+0, 0.00000E+0, 0.00000E+0,1.00000,1,  100.0,  9999.000, -9999.000,   1,1.0000
    13,'1 ',    51.100,    75.439,  9999.000, -9999.000,1.03700,     0,   100.000, 0.00000E+0, 1.00000E+0, 0.00000E+0, 0.00000E+0,1.00000,1,  100.0,  9999.000, -9999.000,   1,1.0000
    14,'1 ',   109.000,    25.631,  9999.000, -9999.000,1.07400,     0,   100.000, 0.00000E+0, 1.00000E+0, 0.00000E+0, 0.00000E+0,1.00000,1,  100.0,  9999.000, -9999.000,   1,1.0000
    34,'1 ',    37.044,     0.049,    21.000,   -12.600,1.04461,     0,    42.000, 0.00000E+0, 3.40000E-1, 0.00000E+0, 1.12200E-1,1.00000,1,  100.0,    40.000,    15.000,   1,1.0000
    34,'2 ',    37.202,     0.049,    21.000,   -12.600,1.04461,     0,    42.000, 0.00000E+0, 3.40000E-1, 0.00000E+0, 1.12200E-1,1.00000,1,  100.0,    40.000,    15.000,   1,1.0000
    36,'1 ',     0.000,     0.000,    20.000,    -8.400,1.04442,     0,    42.000, 0.00000E+0, 3.30000E-1, 0.00000E+0, 1.10000E-1,1.00000,0,  100.0,    40.000,     0.010,   1,1.0000
    36,'2 ',    38.287,     3.142,    20.000,    -8.400,1.04442,     0,    42.000, 0.00000E+0, 3.30000E-1, 0.00000E+0, 1.10000E-1,1.00000,1,  100.0,    40.000,     0.010,   1,1.0000
0 / END OF GENERATOR DATA, BEGIN BRANCH DATA
     1,     5,'1 ', 3.18347E-2, 1.08769E-1,   0.01053,  123.00,    0.00,    0.00,  0.00000,  0.00000,  0.00000,  0.00000,1,2,  32.10,   1,1.0000
     1,    19,'1 ', 2.21157E-2, 7.55620E-2,   0.00731,  123.00,    0.00,    0.00,  0.00000,  0.00000,  0.00000,  0.00000,1,2,  22.30,   1,1.0000
     1,    29,'1 ', 1.93388E-2, 6.76859E-2,   0.00649,  123.00,    0.00,    0.00,  0.00000,  0.00000,  0.00000,  0.00000,1,1,  19.50,   1,1.0000
     1,    36,'1 ', 1.69587E-2, 5.93554E-2,   0.00563,  123.00,    0.00,    0.00,  0.00000,  0.00000,  0.00000,  0.00000,1,1,  17.10,   1,1.0000
     1,    55,'1 ', 3.18645E-2, 1.09785E-1,   0.01062,  123.00,    0.00,    0.00,  0.00000,  0.00000,  0.00000,  0.00000,1,2,  32.40,   1,1.0000
     3,     9,'1 ', 2.15124E-2, 4.75537E-2,   0.00449,   90.00,    0.00,    0.00,  0.00000,  0.00000,  0.00000,  0.00000,1,1,  13.70,   1,1.0000
     3,    34,'1 ', 1.21984E-2, 4.26942E-2,   0.00405,  123.00,    0.00,    0.00,  0.00000,  0.00000,  0.00000,  0.00000,1,2,  12.30,   1,1.0000
     4,    15,'1 ', 3.00826E-3, 2.18099E-2,   0.00396,  300.00,    0.00,    0.00,  0.00000,  0.00000,  0.00000,  0.00000,1,2,   9.10,   1,1.0000
     4,    15,'2 ', 3.00826E-3, 2.18099E-2,   0.00396,  300.00,    0.00,    0.00,  0.00000,  0.00000,  0.00000,  0.00000,1,2,   9.10,   1,1.0000
     4,   103,'1 ', 3.38843E-3, 1.14876E-2,   0.00111,  123.00,    0.00,    0.00,  0.00000,  0.00000,  0.00000,  0.00000,1,1,   3.40,   1,1.0000
     4,   103,'2 ', 3.38843E-3, 1.18182E-2,   0.00112,  123.00,    0.00,    0.00,  0.00000,  0.00000,  0.00000,  0.00000,1,1,   3.40,   1,1.0000
     5,    42,'1 ', 5.73140E-2, 1.26694E-1,   0.01201,   90.00,    0.00,    0.00,  0.00000,  0.00000,  0.00000,  0.00000,1,1,  36.50,   1,1.0000
     5,    68,'1 ', 4.76033E-3, 1.62645E-2,   0.00157,  123.00,    0.00,    0.00,  0.00000,  0.00000,  0.00000,  0.00000,1,2,   4.80,   1,1.0000
     7,     9,'1 ', 7.04132E-3, 2.46446E-2,   0.00234,  123.00,    0.00,    0.00,  0.00000,  0.00000,  0.00000,  0.00000,1,1,   7.10,   1,1.0000
     7,     9,'2 ', 7.04132E-3, 2.46446E-2,   0.00234,  123.00,    0.00,    0.00,  0.00000,  0.00000,  0.00000,  0.00000,1,1,   7.10,   1,1.0000
     8,    14,'1 ', 4.36364E-3, 2.23636E-2,   0.03552,  311.00,    0.00,    0.00,  0.00000,  0.00000,  0.00000,  0.00000,1,2,  26.40,   1,1.0000
     9,    10,'1 ', 3.60000E-2, 1.21800E-1,   0.01190,  123.00,    0.00,    0.00,  0.00000,  0.00000,  0.00000,  0.00000,1,2,  36.30,   1,1.0000
     9,    16,'1 ', 1.03140E-2, 3.48959E-2,   0.00341,  123.00,    0.00,    0.00,  0.00000,  0.00000,  0.00000,  0.00000,1,2,  10.40,   1,1.0000
    10,    15,'1 ', 2.21157E-2, 7.74050E-2,   0.00731,  123.00,    0.00,    0.00,  0.00000,  0.00000,  0.00000,  0.00000,1,1,  22.30,   1,1.0000
    11,    13,'1 ', 1.14375E-3, 1.18950E-2,   0.33770, 1330.00,    0.00,    0.00,  0.00000,  0.00000,  0.00000,  0.00000,1,1,  61.00,   1,1.0000
    12,    72,'1 ', 2.06281E-2, 7.04793E-2,   0.00682,  123.00,    0.00,    0.00,  0.00000,  0.00000,  0.00000,  0.00000,1,1,  20.80,   1,1.0000
    12,    72,'2 ', 2.06281E-2, 7.04793E-2,   0.00682,  123.00,    0.00,    0.00,  0.00000,  0.00000,  0.00000,  0.00000,1,1,  20.80,   1,1.0000
    15,    18,'1 ', 6.44628E-3, 2.20248E-2,   0.00216,  123.00,    0.00,    0.00,  0.00000,  0.00000,  0.00000,  0.00000,1,1,   6.50,   1,1.0000
    15,    26,'1 ', 1.38843E-2, 4.74380E-2,   0.00461,  123.00,    0.00,    0.00,  0.00000,  0.00000,  0.00000,  0.00000,1,1,  14.00,   1,1.0000
    16,    17,'1 ', 5.60331E-3, 1.96116E-2,   0.00186,  123.00,    0.00,    0.00,  0.00000,  0.00000,  0.00000,  0.00000,1,2,   5.65,   1,1.0000
    17,    34,'1 ', 1.29422E-2, 4.52975E-2,   0.00430,  123.00,    0.00,    0.00,  0.00000,  0.00000,  0.00000,  0.00000,1,1,  13.05,   1,1.0000
    18,   103,'1 ', 6.44628E-3, 2.20248E-2,   0.00216,  123.00,    0.00,    0.00,  0.00000,  0.00000,  0.00000,  0.00000,1,1,   6.50,   1,1.0000
    26,    55,'1 ', 3.60000E-2, 1.21800E-1,   0.01190,  123.00,    0.00,    0.00,  0.00000,  0.00000,  0.00000,  0.00000,1,2,  36.30,   1,1.0000
    26,   103,'1 ', 1.37124E-2, 4.59702E-2,   0.00446,  123.00,    0.00,    0.00,  0.00000,  0.00000,  0.00000,  0.00000,1,1,  13.60,   1,1.0000
    29,    34,'1 ', 1.21984E-2, 4.26942E-2,   0.00403,  123.00,    0.00,    0.00,  0.00000,  0.00000,  0.00000,  0.00000,1,1,  12.30,   1,1.0000
    34,    35,'1 ', 1.12066E-2, 3.79157E-2,   0.00371,  123.00,    0.00,    0.00,  0.00000,  0.00000,  0.00000,  0.00000,1,2,  11.30,   1,1.0000
    35,    36,'1 ', 1.00165E-2, 3.50579E-2,   0.00332,  123.00,    0.00,    0.00,  0.00000,  0.00000,  0.00000,  0.00000,1,2,  10.10,   1,1.0000
    42,    72,'1 ', 4.60083E-2, 1.01702E-1,   0.00961,   90.00,    0.00,    0.00,  0.00000,  0.00000,  0.00000,  0.00000,1,2,  29.30,   1,1.0000
    72,   103,'1 ', 2.11240E-2, 7.39339E-2,   0.00701,  123.00,    0.00,    0.00,  0.00000,  0.00000,  0.00000,  0.00000,1,1,  21.30,   1,1.0000
    72,   103,'2 ', 2.11240E-2, 7.39339E-2,   0.00701,  123.00,    0.00,    0.00,  0.00000,  0.00000,  0.00000,  0.00000,1,1,  21.30,   1,1.0000
0 / END OF BRANCH DATA, BEGIN TRANSFORMER DATA
     1,     2,     0,'1 ',2,1,1, 2.30000E-4,-4.60000E-4,2,'TR01-02-1   ',1,   1,1.0000,   0,1.0000,   0,1.0000,   0,1.0000,'YNyn0       '
 9.03800E-3, 2.68098E-1,    40.00
119.000, 110.000,   0.000,    40.00,     0.00,     0.00, 1,      2,121.0000,98.00000, 1.01400, 0.98500,  21, 0, 0.00000, 0.00000,  0.000
36.7500,  35.000
     1,     2,     0,'2 ',2,1,1, 2.30000E-4,-4.60000E-4,2,'TR01-02-2   ',0,   1,1.0000,   0,1.0000,   0,1.0000,   0,1.0000,'YNyn0       '
 9.03800E-3, 2.68098E-1,    40.00
119.000, 110.000,   0.000,    40.00,    48.00,    48.00, 1,      2,125.0000,95.00000, 1.01400, 0.99000,  21, 0, 0.00000, 0.00000,  0.000
36.7500,  36.750
     8,    72,     0,'2 ',2,1,1, 6.07500E-4, 0.00000E+0,1,'            ',1,   1,1.0000,   0,1.0000,   0,1.0000,   0,1.0000,'            '
 1.64444E-3, 6.99807E-2,   150.00
228.140, 220.000,   0.000,   150.00,     0.00,     0.00, 0,      0, 1.10000, 0.90000, 1.10000, 0.90000,  25, 0, 0.00000, 0.00000,  0.000
115.000, 110.000
     8,    72,     0,'3 ',2,1,1, 6.01300E-4, 0.00000E+0,1,'            ',1,   1,1.0000,   0,1.0000,   0,1.0000,   0,1.0000,'            '
 1.64889E-3, 6.99806E-2,   150.00
228.140, 220.000,   0.000,   150.00,     0.00,     0.00, 0,      0, 1.10000, 0.90000, 1.10000, 0.90000,  25, 0, 0.00000, 0.00000,  0.000
115.000, 110.000
    11,    12,     0,'2 ',2,1,1, 1.25200E-3, 0.00000E+0,1,'            ',1,   1,1.0000,   0,1.0000,   0,1.0000,   0,1.0000,'            '
 7.09110E-4, 4.15606E-2,   300.00
400.000, 400.000,   0.000,   300.00,     0.00,     0.00, 0,      0, 1.10000, 0.90000, 1.10000, 0.90000,   5, 0, 0.00000, 0.00000,  0.000
115.000, 110.000
    11,    12,     0,'3 ',2,1,1, 1.29600E-3, 0.00000E+0,1,'            ',1,   1,1.0000,   0,1.0000,   0,1.0000,   0,1.0000,'            '
 6.97560E-4, 4.25609E-2,   300.00
400.000, 400.000,   0.000,   300.00,     0.00,     0.00, 0,      0, 1.10000, 0.90000, 1.10000, 0.90000,   5, 0, 0.00000, 0.00000,  0.000
115.000, 110.000
    13,    14,     0,'1 ',2,1,1, 6.16000E-4, 0.00000E+0,1,'            ',1,   1,1.0000,   0,1.0000,   0,1.0000,   0,1.0000,'            '
 3.64560E-4, 3.17479E-2,   400.00
398.000, 400.000,   0.460,   400.00,     0.00,     0.00, 0,      0, 1.10000, 0.90000, 1.10000, 0.90000,  25, 0, 0.00000, 0.00000,  0.000
231.000, 220.000
    13,    15,     0,'1 ',2,1,1, 9.12000E-4, 0.00000E+0,1,'            ',1,   1,1.0000,   0,1.0000,   0,1.0000,   0,1.0000,'            '
 5.26330E-4, 4.07299E-2,   300.00
409.200, 400.000,   0.000,   300.00,     0.00,     0.00, 0,      0, 1.10000, 0.90000, 1.10000, 0.90000,  25, 0, 0.00000, 0.00000,  0.000
115.000, 110.000
    13,    15,     0,'2 ',2,1,1, 8.98000E-4, 0.00000E+0,1,'            ',1,   1,1.0000,   0,1.0000,   0,1.0000,   0,1.0000,'            '
 5.42330E-4, 4.07964E-2,   300.00
409.200, 400.000,   0.000,   300.00,     0.00,     0.00, 0,      0, 1.10000, 0.90000, 1.10000, 0.90000,  25, 0, 0.00000, 0.00000,  0.000
115.000, 110.000
    19,    20,     0,'1 ',2,1,1, 2.80000E-4,-2.52000E-3,2,'TR19-20-1   ',1,   1,1.0000,   0,1.0000,   0,1.0000,   0,1.0000,'YNyn0       '
 3.39725E-2, 5.53959E-1,    20.00
119.000, 110.000,   0.000,    20.00,    24.00,    24.00, 1,     20,125.0000,95.00000, 1.01400, 0.98500,  21, 0, 0.00000, 0.00000,  0.000
36.7500,  36.750
    19,    21,     0,'2 ',2,1,1, 2.80000E-4,-2.52000E-3,2,'TR19-21-2   ',1,   1,1.0000,   0,1.0000,   0,1.0000,   0,1.0000,'YNyn0       '
 3.39725E-2, 5.68987E-1,    20.00
119.000, 110.000,   0.000,    20.00,    24.00,    24.00, 1,     21,125.0000,95.00000, 1.01400, 0.98500,  21, 0, 0.00000, 0.00000,  0.000
36.7500,  36.750
    29,    30,     0,'1 ',2,1,1, 2.60000E-4,-9.70000E-4,2,'TR29-30-1   ',0,   1,1.0000,   0,1.0000,   0,1.0000,   0,1.0000,'YNyn0       '
 4.19100E-2, 5.24328E-1,    20.00
119.000, 110.000,   0.000,    20.00,    24.00,    24.00, 1,     30,125.0000,95.00000, 1.01400, 0.98500,  21, 0, 0.00000, 0.00000,  0.000
36.7500,  36.750
    29,    30,     0,'2 ',2,1,1, 2.00000E-4,-5.50000E-4,2,'TR29-30-2   ',1,   1,1.0000,   0,1.0000,   0,1.0000,   0,1.0000,'YNyn0       '
 2.56818E-2, 5.31198E-1,    22.00
119.000, 110.000,   0.000,    22.00,    26.40,    26.40, 1,     30,125.0000,95.00000, 1.01400, 0.98500,  21, 0, 0.00000, 0.00000,  0.000
36.7500,  36.750
0 / END OF TRANSFORMER DATA, BEGIN AREA DATA
   8,     0,     0.000,    10.000,'HRVATSKA    '
0 / END OF AREA DATA, BEGIN TWO-TERMINAL DC DATA
0 / END OF TWO-TERMINAL DC DATA, BEGIN VOLTAGE SOURCE CONVERTER DATA
0 / END OF VOLTAGE SOURCE CONVERTER DATA, BEGIN IMPEDANCE CORRECTION DATA
0 / END OF IMPEDANCE CORRECTION DATA, BEGIN MULTI-TERMINAL DC DATA
0 / END OF MULTI-TERMINAL DC DATA, BEGIN MULTI-SECTION LINE DATA
0 / END OF MULTI-SECTION LINE DATA, BEGIN ZONE DATA
   1,'REAL        '
0 / END OF ZONE DATA, BEGIN INTER-AREA TRANSFER DATA
0 / END OF INTER-AREA TRANSFER DATA, BEGIN OWNER DATA
0 / END OF OWNER DATA, BEGIN FACTS CONTROL DEVICE DATA
0 / END OF FACTS CONTROL DEVICE DATA, BEGIN SWITCHED SHUNT DATA
0 / END OF SWITCHED SHUNT DATA, BEGIN GNE DEVICE DATA
0 / END OF GNE DEVICE DATA, BEGIN INDUCTION MACHINE DATA
0 / END OF INDUCTION MACHINE DATA
Q
